<?xml version="1.0" encoding="UTF-8"?>

<!-- generated on 2018/7/19 15:21:34 by Netedit Version 0.32.0
<?xml version="1.0" encoding="UTF-8"?>

<configuration xmlns:xsi="http://www.w3.org/2001/XMLSchema-instance" xsi:noNamespaceSchemaLocation="http://sumo.dlr.de/xsd/netconvertConfiguration.xsd">

    <input>
        <sumo-net-file value="D:\pythonWorkPlace\HeFeiSUMO\com\test\data2\hefei_area_v13.net.xml"/>
    </input>

    <output>
        <output-file value="D:\pythonWorkPlace\HeFeiSUMO\com\test\data2\hefei_area_v13.net.xml"/>
    </output>

    <processing>
        <no-turnarounds value="true"/>
        <offset.disable-normalization value="true"/>
        <lefthand value="false"/>
        <junctions.corner-detail value="0"/>
        <rectangular-lane-cut value="false"/>
        <walkingareas value="false"/>
    </processing>

</configuration>
-->

<net version="0.27" xmlns:xsi="http://www.w3.org/2001/XMLSchema-instance" xsi:noNamespaceSchemaLocation="http://sumo.dlr.de/xsd/net_file.xsd">

    <location netOffset="-523213.93,-3519711.08" convBoundary="2763.23,852.51,5235.23,5563.56" origBoundary="117.245367,31.812774,117.300740,31.874330" projParameter="+proj=utm +zone=50 +ellps=WGS84 +datum=WGS84 +units=m +no_defs"/>

    <edge id=":12438153_0" function="internal">
        <lane id=":12438153_0_0" index="0" speed="16.67" length="0.30" shape="3347.45,5087.43 3347.41,5087.10"/>
        <lane id=":12438153_0_1" index="1" speed="16.67" length="0.30" shape="3350.73,5087.08 3350.70,5086.77"/>
        <lane id=":12438153_0_2" index="2" speed="16.67" length="0.30" shape="3354.01,5086.73 3353.98,5086.45"/>
        <lane id=":12438153_0_3" index="3" speed="16.67" length="0.30" shape="3357.29,5086.38 3357.27,5086.12"/>
    </edge>
    <edge id=":12438163_0" function="internal">
        <lane id=":12438163_0_0" index="0" speed="16.67" length="0.29" shape="3043.61,4554.84 3043.84,4554.92"/>
        <lane id=":12438163_0_1" index="1" speed="16.67" length="0.29" shape="3042.56,4557.97 3042.83,4558.06"/>
        <lane id=":12438163_0_2" index="2" speed="16.67" length="0.29" shape="3041.51,4561.10 3041.82,4561.20"/>
    </edge>
    <edge id=":12438177_0" function="internal">
        <lane id=":12438177_0_0" index="0" speed="16.67" length="3.36" shape="3475.39,4739.64 3471.36,4741.54"/>
        <lane id=":12438177_0_1" index="1" speed="16.67" length="3.36" shape="3475.39,4739.64 3472.62,4738.49"/>
        <lane id=":12438177_0_2" index="2" speed="16.67" length="3.36" shape="3476.66,4736.60 3473.89,4735.45"/>
        <lane id=":12438177_0_3" index="3" speed="16.67" length="3.36" shape="3477.92,4733.55 3475.15,4732.40"/>
    </edge>
    <edge id=":12438178_0" function="internal">
        <lane id=":12438178_0_0" index="0" speed="16.67" length="3.00" shape="3530.43,4744.38 3533.20,4745.53"/>
        <lane id=":12438178_0_1" index="1" speed="16.67" length="3.00" shape="3529.16,4747.43 3531.93,4748.58"/>
        <lane id=":12438178_0_2" index="2" speed="16.67" length="3.00" shape="3527.90,4750.48 3530.66,4751.62"/>
    </edge>
    <edge id=":12438205_0" function="internal">
        <lane id=":12438205_0_0" index="0" speed="10.28" length="14.46" shape="4190.49,4995.41 4195.03,5001.30 4195.67,5005.87 4192.39,5009.11 4185.21,5011.04"/>
        <lane id=":12438205_0_1" index="1" speed="10.28" length="14.46" shape="4189.44,4998.54 4192.16,5002.07 4192.54,5004.81 4190.58,5006.76 4186.27,5007.92"/>
        <lane id=":12438205_0_2" index="2" speed="10.28" length="14.46" shape="4188.39,5001.67 4189.29,5002.84 4189.42,5003.76 4188.77,5004.41 4187.33,5004.79"/>
    </edge>
    <edge id=":12438206_0" function="internal">
        <lane id=":12438206_0_0" index="0" speed="10.28" length="0.30" shape="4124.59,4973.25 4124.86,4973.34"/>
        <lane id=":12438206_0_1" index="1" speed="10.28" length="0.30" shape="4123.53,4976.37 4123.81,4976.47"/>
        <lane id=":12438206_0_2" index="2" speed="10.28" length="0.30" shape="4122.46,4979.50 4122.76,4979.60"/>
    </edge>
    <edge id=":15452347_0" function="internal">
        <lane id=":15452347_0_0" index="0" speed="11.11" length="4.82" shape="3176.32,4883.89 3175.22,4882.89 3174.94,4882.01 3175.47,4881.26 3176.82,4880.63"/>
    </edge>
    <edge id=":15452348_0" function="internal">
        <lane id=":15452348_0_0" index="0" speed="16.67" length="3.29" shape="3345.46,5067.48 3341.87,5064.85"/>
        <lane id=":15452348_0_1" index="1" speed="16.67" length="3.29" shape="3345.46,5067.48 3345.16,5064.51"/>
        <lane id=":15452348_0_2" index="2" speed="16.67" length="3.29" shape="3348.74,5067.16 3348.44,5064.17"/>
        <lane id=":15452348_0_3" index="3" speed="16.67" length="3.29" shape="3352.02,5066.83 3351.72,5063.84"/>
        <lane id=":15452348_0_4" index="4" speed="16.67" length="3.29" shape="3355.31,5066.50 3355.00,5063.50"/>
    </edge>
    <edge id=":15452351_0" function="internal">
        <lane id=":15452351_0_0" index="0" speed="10.28" length="3.93" shape="3432.51,5523.63 3432.91,5525.62 3432.98,5527.03 3432.69,5528.42 3431.98,5530.33"/>
        <lane id=":15452351_0_1" index="1" speed="10.28" length="3.93" shape="3429.29,5524.34 3429.57,5525.76 3429.62,5526.77 3429.41,5527.76 3428.91,5529.12"/>
        <lane id=":15452351_0_2" index="2" speed="10.28" length="3.93" shape="3426.07,5525.05 3426.24,5525.90 3426.27,5526.51 3426.14,5527.10 3425.84,5527.91"/>
        <lane id=":15452351_0_3" index="3" speed="10.28" length="3.93" shape="3422.84,5525.77 3422.90,5526.05 3422.91,5526.24 3422.87,5526.44 3422.77,5526.70"/>
    </edge>
    <edge id=":15452352_0" function="internal">
        <lane id=":15452352_0_0" index="0" speed="10.28" length="55.68" shape="3417.15,5568.00 3408.76,5585.57 3402.26,5590.85 3397.67,5583.85 3394.97,5564.57"/>
    </edge>
    <edge id=":15452352_1" function="internal">
        <lane id=":15452352_1_0" index="0" speed="10.28" length="39.70" shape="3414.07,5566.79 3408.09,5579.32 3403.46,5583.08 3400.19,5578.10 3398.26,5564.35"/>
    </edge>
    <edge id=":15452352_2" function="internal">
        <lane id=":15452352_2_0" index="0" speed="10.28" length="23.72" shape="3411.00,5565.58 3407.43,5573.07 3404.66,5575.32 3402.71,5572.34 3401.56,5564.12"/>
    </edge>
    <edge id=":15452352_3" function="internal">
        <lane id=":15452352_3_0" index="0" speed="10.28" length="7.75" shape="3407.93,5564.37 3406.77,5566.82 3405.86,5567.55 3405.22,5566.58 3404.85,5563.89"/>
    </edge>
    <edge id=":15620559_0" function="internal">
        <lane id=":15620559_0_0" index="0" speed="8.89" length="0.49" shape="3057.96,1929.81 3058.62,1929.79"/>
        <lane id=":15620559_0_1" index="1" speed="8.89" length="0.49" shape="3058.09,1933.10 3058.66,1933.09"/>
        <lane id=":15620559_0_2" index="2" speed="8.89" length="0.49" shape="3058.22,1936.40 3058.71,1936.39"/>
        <lane id=":15620559_0_3" index="3" speed="8.89" length="0.49" shape="3058.35,1939.70 3058.75,1939.69"/>
        <lane id=":15620559_0_4" index="4" speed="8.89" length="0.49" shape="3058.48,1943.00 3058.79,1942.99"/>
    </edge>
    <edge id=":15620560_0" function="internal">
        <lane id=":15620560_0_0" index="0" speed="8.89" length="28.92" shape="3201.64,1780.98 3206.63,1773.58 3211.59,1771.13 3216.53,1773.63 3221.44,1781.08"/>
        <lane id=":15620560_0_1" index="1" speed="8.89" length="28.92" shape="3204.94,1781.00 3209.90,1773.59 3214.86,1771.12 3219.80,1773.60 3224.74,1781.04"/>
        <lane id=":15620560_0_2" index="2" speed="8.89" length="28.92" shape="3208.24,1781.02 3213.18,1773.59 3218.13,1771.11 3223.08,1773.58 3228.04,1781.00"/>
        <lane id=":15620560_0_3" index="3" speed="8.89" length="28.92" shape="3211.54,1781.04 3216.46,1773.60 3221.39,1771.10 3226.35,1773.55 3231.34,1780.95"/>
        <lane id=":15620560_0_4" index="4" speed="8.89" length="28.92" shape="3214.84,1781.07 3219.73,1773.60 3224.66,1771.09 3229.63,1773.53 3234.64,1780.91"/>
        <lane id=":15620560_0_5" index="5" speed="8.89" length="28.92" shape="3218.14,1781.09 3223.01,1773.61 3227.93,1771.08 3232.91,1773.50 3237.94,1780.87"/>
    </edge>
    <edge id=":19571959_0" function="internal">
        <lane id=":19571959_0_0" index="0" speed="16.67" length="0.12" shape="3273.31,3641.88 3273.30,3641.70"/>
        <lane id=":19571959_0_1" index="1" speed="16.67" length="0.12" shape="3276.61,3641.67 3276.60,3641.55"/>
        <lane id=":19571959_0_2" index="2" speed="16.67" length="0.12" shape="3279.90,3641.47 3279.90,3641.40"/>
        <lane id=":19571959_0_3" index="3" speed="16.67" length="0.12" shape="3283.19,3641.27 3283.19,3641.25"/>
    </edge>
    <edge id=":208959_0" function="internal">
        <lane id=":208959_0_0" index="0" speed="16.67" length="2.99" shape="3241.59,2100.48 3241.67,2103.51"/>
        <lane id=":208959_0_1" index="1" speed="16.67" length="2.99" shape="3238.29,2100.58 3238.37,2103.59"/>
        <lane id=":208959_0_2" index="2" speed="16.67" length="2.99" shape="3234.99,2100.68 3235.07,2103.67"/>
        <lane id=":208959_0_3" index="3" speed="16.67" length="2.99" shape="3231.69,2100.78 3231.78,2103.76"/>
        <lane id=":208959_0_4" index="4" speed="16.67" length="2.99" shape="3228.39,2100.88 3228.48,2103.84"/>
    </edge>
    <edge id=":209017_0" function="internal">
        <lane id=":209017_0_0" index="0" speed="16.67" length="3.24" shape="3244.96,2233.95 3248.33,2236.87"/>
        <lane id=":209017_0_1" index="1" speed="16.67" length="3.24" shape="3244.96,2233.95 3245.03,2236.95"/>
        <lane id=":209017_0_2" index="2" speed="16.67" length="3.24" shape="3241.66,2234.04 3241.73,2237.04"/>
        <lane id=":209017_0_3" index="3" speed="16.67" length="3.24" shape="3238.36,2234.12 3238.44,2237.12"/>
        <lane id=":209017_0_4" index="4" speed="16.67" length="3.24" shape="3235.06,2234.20 3235.14,2237.20"/>
        <lane id=":209017_0_5" index="5" speed="16.67" length="3.24" shape="3231.76,2234.29 3231.84,2237.29"/>
    </edge>
    <edge id=":209019_0" function="internal">
        <lane id=":209019_0_0" index="0" speed="16.67" length="6.21" shape="3209.66,2103.45 3202.98,2100.49"/>
        <lane id=":209019_0_1" index="1" speed="16.67" length="6.21" shape="3212.95,2103.34 3206.28,2100.44"/>
        <lane id=":209019_0_2" index="2" speed="16.67" length="6.21" shape="3216.25,2103.23 3209.58,2100.38"/>
        <lane id=":209019_0_3" index="3" speed="16.67" length="6.21" shape="3219.55,2103.12 3212.88,2100.33"/>
        <lane id=":209019_0_4" index="4" speed="16.67" length="6.21" shape="3222.85,2103.01 3216.18,2100.27"/>
        <lane id=":209019_0_5" index="5" speed="16.67" length="6.21" shape="3222.85,2103.01 3219.48,2100.22"/>
        <lane id=":209019_0_6" index="6" speed="16.67" length="6.21" shape="3222.85,2103.01 3222.78,2100.17"/>
    </edge>
    <edge id=":214311_0" function="internal">
        <lane id=":214311_0_0" index="0" speed="8.89" length="0.30" shape="3336.66,1926.52 3336.98,1926.52"/>
        <lane id=":214311_0_1" index="1" speed="8.89" length="0.30" shape="3336.70,1929.82 3337.00,1929.82"/>
        <lane id=":214311_0_2" index="2" speed="8.89" length="0.30" shape="3336.73,1933.12 3337.03,1933.12"/>
        <lane id=":214311_0_3" index="3" speed="8.89" length="0.30" shape="3336.76,1936.42 3337.05,1936.42"/>
        <lane id=":214311_0_4" index="4" speed="8.89" length="0.30" shape="3336.79,1939.72 3337.08,1939.72"/>
    </edge>
    <edge id=":217663_0" function="internal">
        <lane id=":217663_0_0" index="0" speed="10.28" length="14.46" shape="3396.75,2382.71 3402.86,2386.94 3404.85,2391.10 3402.72,2395.19 3396.46,2399.21"/>
        <lane id=":217663_0_1" index="1" speed="10.28" length="14.46" shape="3396.68,2386.01 3400.35,2388.55 3401.54,2391.05 3400.26,2393.50 3396.51,2395.91"/>
        <lane id=":217663_0_2" index="2" speed="10.28" length="14.46" shape="3396.61,2389.31 3397.83,2390.16 3398.23,2390.99 3397.80,2391.81 3396.55,2392.61"/>
    </edge>
    <edge id=":217664_0" function="internal">
        <lane id=":217664_0_0" index="0" speed="10.28" length="0.29" shape="3350.67,2381.73 3351.00,2381.73"/>
        <lane id=":217664_0_1" index="1" speed="10.28" length="0.29" shape="3350.64,2385.03 3350.93,2385.03"/>
        <lane id=":217664_0_2" index="2" speed="10.28" length="0.29" shape="3350.61,2388.33 3350.86,2388.33"/>
    </edge>
    <edge id=":218453_0" function="internal">
        <lane id=":218453_0_0" index="0" speed="15.28" length="5.65" shape="3200.70,1961.54 3200.48,1959.84 3199.88,1958.63 3198.90,1957.92 3197.54,1957.69"/>
    </edge>
    <edge id=":218453_1" function="internal">
        <lane id=":218453_1_0" index="0" speed="16.67" length="36.84" shape="3204.00,1961.44 3204.33,1950.52 3205.34,1943.07 3206.33,1935.62 3206.62,1924.70"/>
        <lane id=":218453_1_1" index="1" speed="16.67" length="36.84" shape="3207.30,1961.33 3207.63,1950.43 3208.64,1942.98 3209.63,1935.54 3209.92,1924.64"/>
        <lane id=":218453_1_2" index="2" speed="16.67" length="36.84" shape="3210.60,1961.23 3210.93,1950.33 3211.94,1942.90 3212.93,1935.46 3213.22,1924.57"/>
    </edge>
    <edge id=":218453_4" function="internal">
        <lane id=":218453_4_0" index="0" speed="15.28" length="45.56" shape="3213.89,1961.13 3215.77,1950.82 3221.80,1943.42 3231.97,1938.91 3246.29,1937.30"/>
    </edge>
    <edge id=":218453_5" function="internal">
        <lane id=":218453_5_0" index="0" speed="15.28" length="40.21" shape="3217.19,1961.03 3218.89,1952.20 3224.31,1945.85 3233.46,1941.99 3246.32,1940.60"/>
    </edge>
    <edge id=":218453_6" function="internal">
        <lane id=":218453_6_0" index="0" speed="16.67" length="36.50" shape="3220.49,1960.93 3219.82,1924.43"/>
    </edge>
    <edge id=":218453_7" function="internal">
        <lane id=":218453_7_0" index="0" speed="15.28" length="7.50" shape="3246.48,1957.12 3243.85,1957.34 3241.99,1957.94 3240.88,1958.93 3240.55,1960.31"/>
    </edge>
    <edge id=":218453_8" function="internal">
        <lane id=":218453_8_0" index="0" speed="13.89" length="48.99" shape="3246.45,1953.82 3197.49,1954.39"/>
        <lane id=":218453_8_1" index="1" speed="13.89" length="48.99" shape="3246.42,1950.52 3197.44,1951.09"/>
        <lane id=":218453_8_2" index="2" speed="13.89" length="48.99" shape="3246.39,1947.22 3197.40,1947.79"/>
        <lane id=":218453_8_3" index="3" speed="13.89" length="48.99" shape="3246.36,1943.92 3197.35,1944.50"/>
    </edge>
    <edge id=":218453_12" function="internal">
        <lane id=":218453_12_0" index="0" speed="15.28" length="40.04" shape="3246.36,1943.92 3233.45,1942.80 3224.18,1939.20 3218.54,1933.10 3216.52,1924.50"/>
    </edge>
    <edge id=":218453_13" function="internal">
        <lane id=":218453_13_0" index="0" speed="13.89" length="5.31" shape="3243.06,1923.96 3243.27,1925.47 3243.86,1926.56 3244.84,1927.20 3246.20,1927.40"/>
    </edge>
    <edge id=":218453_14" function="internal">
        <lane id=":218453_14_0" index="0" speed="15.28" length="36.50" shape="3239.76,1924.02 3237.25,1960.41"/>
        <lane id=":218453_14_1" index="1" speed="15.28" length="36.50" shape="3236.46,1924.09 3233.95,1960.51"/>
        <lane id=":218453_14_2" index="2" speed="15.28" length="36.50" shape="3233.16,1924.16 3230.65,1960.61"/>
    </edge>
    <edge id=":218453_17" function="internal">
        <lane id=":218453_17_0" index="0" speed="13.89" length="45.33" shape="3229.86,1924.23 3227.94,1934.36 3221.89,1941.67 3211.71,1946.14 3197.40,1947.79"/>
    </edge>
    <edge id=":218453_18" function="internal">
        <lane id=":218453_18_0" index="0" speed="13.89" length="40.03" shape="3226.56,1924.29 3224.83,1932.97 3219.38,1939.23 3210.22,1943.07 3197.35,1944.50"/>
    </edge>
    <edge id=":218453_19" function="internal">
        <lane id=":218453_19_0" index="0" speed="15.28" length="36.46" shape="3223.26,1924.36 3224.06,1960.82"/>
    </edge>
    <edge id=":218453_20" function="internal">
        <lane id=":218453_20_0" index="0" speed="15.28" length="7.73" shape="3197.11,1927.96 3199.85,1927.73 3201.80,1927.12 3202.96,1926.14 3203.32,1924.77"/>
    </edge>
    <edge id=":218453_21" function="internal">
        <lane id=":218453_21_0" index="0" speed="13.89" length="49.07" shape="3197.16,1931.26 3246.23,1930.70"/>
        <lane id=":218453_21_1" index="1" speed="13.89" length="49.07" shape="3197.20,1934.56 3246.26,1934.00"/>
    </edge>
    <edge id=":218453_23" function="internal">
        <lane id=":218453_23_0" index="0" speed="15.28" length="42.76" shape="3197.25,1937.86 3210.15,1939.15 3219.47,1943.38 3225.21,1950.57 3227.36,1960.71"/>
    </edge>
    <edge id=":218453_24" function="internal">
        <lane id=":218453_24_0" index="0" speed="13.89" length="49.03" shape="3197.30,1941.16 3246.32,1940.60"/>
    </edge>
    <edge id=":218459_0" function="internal">
        <lane id=":218459_0_0" index="0" speed="16.67" length="7.50" shape="3216.00,2401.88 3215.74,2399.58 3214.99,2397.93 3213.75,2396.91 3212.02,2396.54"/>
    </edge>
    <edge id=":218459_1" function="internal">
        <lane id=":218459_1_0" index="0" speed="16.67" length="24.90" shape="3219.30,2401.76 3218.82,2376.85"/>
        <lane id=":218459_1_1" index="1" speed="16.67" length="24.90" shape="3222.60,2401.63 3222.12,2376.74"/>
        <lane id=":218459_1_2" index="2" speed="16.67" length="24.90" shape="3225.90,2401.51 3225.42,2376.63"/>
    </edge>
    <edge id=":218459_4" function="internal">
        <lane id=":218459_4_0" index="0" speed="16.67" length="33.52" shape="3229.20,2401.39 3230.83,2395.17 3235.82,2390.77 3244.15,2388.18 3255.84,2387.40"/>
    </edge>
    <edge id=":218459_5" function="internal">
        <lane id=":218459_5_0" index="0" speed="16.67" length="24.86" shape="3232.50,2401.27 3232.01,2376.41"/>
    </edge>
    <edge id=":218459_6" function="internal">
        <lane id=":218459_6_0" index="0" speed="16.67" length="5.06" shape="3255.74,2397.37 3254.36,2397.55 3253.39,2398.14 3252.83,2399.12 3252.68,2400.51"/>
    </edge>
    <edge id=":218459_7" function="internal">
        <lane id=":218459_7_0" index="0" speed="16.67" length="43.67" shape="3255.77,2394.07 3212.11,2393.24"/>
    </edge>
    <edge id=":218459_8" function="internal">
        <lane id=":218459_8_0" index="0" speed="16.67" length="33.71" shape="3255.80,2390.77 3244.13,2389.75 3235.72,2387.04 3230.58,2382.62 3228.72,2376.52"/>
    </edge>
    <edge id=":218459_9" function="internal">
        <lane id=":218459_9_0" index="0" speed="16.67" length="7.26" shape="3251.90,2375.75 3252.20,2377.94 3252.96,2379.52 3254.20,2380.47 3255.90,2380.80"/>
    </edge>
    <edge id=":218459_10" function="internal">
        <lane id=":218459_10_0" index="0" speed="16.67" length="24.81" shape="3248.60,2375.86 3249.38,2400.64"/>
        <lane id=":218459_10_1" index="1" speed="16.67" length="24.81" shape="3245.30,2375.96 3246.08,2400.76"/>
        <lane id=":218459_10_2" index="2" speed="16.67" length="24.81" shape="3242.00,2376.07 3242.79,2400.88"/>
    </edge>
    <edge id=":218459_13" function="internal">
        <lane id=":218459_13_0" index="0" speed="16.67" length="33.50" shape="3238.71,2376.18 3237.19,2382.46 3232.26,2386.84 3223.93,2389.34 3212.19,2389.94"/>
    </edge>
    <edge id=":218459_14" function="internal">
        <lane id=":218459_14_0" index="0" speed="16.67" length="24.85" shape="3235.41,2376.29 3236.19,2401.13"/>
    </edge>
    <edge id=":218459_15" function="internal">
        <lane id=":218459_15_0" index="0" speed="16.67" length="5.07" shape="3212.44,2380.07 3213.83,2379.91 3214.80,2379.33 3215.37,2378.35 3215.52,2376.96"/>
    </edge>
    <edge id=":218459_16" function="internal">
        <lane id=":218459_16_0" index="0" speed="16.67" length="43.52" shape="3212.35,2383.37 3255.87,2384.10"/>
    </edge>
    <edge id=":218459_17" function="internal">
        <lane id=":218459_17_0" index="0" speed="16.67" length="33.76" shape="3212.27,2386.67 3223.99,2387.81 3232.43,2390.57 3237.60,2394.97 3239.49,2401.00"/>
    </edge>
    <edge id=":221188_0" function="internal">
        <lane id=":221188_0_0" index="0" speed="10.28" length="0.62" shape="3201.34,1828.09 3201.33,1827.25"/>
        <lane id=":221188_0_1" index="1" speed="10.28" length="0.62" shape="3204.64,1828.02 3204.63,1827.27"/>
        <lane id=":221188_0_2" index="2" speed="10.28" length="0.62" shape="3207.94,1827.95 3207.93,1827.29"/>
        <lane id=":221188_0_3" index="3" speed="10.28" length="0.62" shape="3211.24,1827.88 3211.23,1827.31"/>
        <lane id=":221188_0_4" index="4" speed="10.28" length="0.62" shape="3214.53,1827.81 3214.53,1827.33"/>
        <lane id=":221188_0_5" index="5" speed="10.28" length="0.62" shape="3217.83,1827.75 3217.83,1827.36"/>
    </edge>
    <edge id=":237105_0" function="internal">
        <lane id=":237105_0_0" index="0" speed="16.67" length="29.08" shape="3307.47,4692.43 3305.98,4683.87 3303.09,4677.12 3298.82,4672.16 3293.14,4669.00"/>
    </edge>
    <edge id=":237105_1" function="internal">
        <lane id=":237105_1_0" index="0" speed="16.67" length="48.20" shape="3310.76,4692.15 3307.88,4643.94"/>
        <lane id=":237105_1_1" index="1" speed="16.67" length="48.20" shape="3314.05,4691.86 3311.18,4643.83"/>
    </edge>
    <edge id=":237105_3" function="internal">
        <lane id=":237105_3_0" index="0" speed="16.67" length="47.23" shape="3317.33,4691.57 3318.15,4678.01 3323.35,4670.23 3332.94,4668.24 3346.92,4672.03"/>
    </edge>
    <edge id=":237105_4" function="internal">
        <lane id=":237105_4_0" index="0" speed="16.67" length="39.71" shape="3320.62,4691.29 3321.32,4679.95 3325.72,4673.48 3333.84,4671.85 3345.66,4675.08"/>
    </edge>
    <edge id=":237105_5" function="internal">
        <lane id=":237105_5_0" index="0" speed="16.67" length="4.94" shape="3320.62,4691.29 3321.35,4689.95 3322.16,4689.45 3323.04,4689.80 3323.99,4690.99"/>
    </edge>
    <edge id=":237105_6" function="internal">
        <lane id=":237105_6_0" index="0" speed="16.67" length="5.73" shape="3340.60,4687.30 3338.95,4686.87 3337.83,4687.15 3337.22,4688.14 3337.14,4689.84"/>
    </edge>
    <edge id=":237105_7" function="internal">
        <lane id=":237105_7_0" index="0" speed="16.67" length="9.58" shape="3340.60,4687.30 3337.46,4686.35 3335.29,4686.51 3334.08,4687.76 3333.85,4690.13"/>
    </edge>
    <edge id=":237105_8" function="internal">
        <lane id=":237105_8_0" index="0" speed="16.67" length="51.12" shape="3341.86,4684.26 3294.25,4665.89"/>
        <lane id=":237105_8_1" index="1" speed="16.67" length="51.12" shape="3343.12,4681.21 3295.35,4662.78"/>
    </edge>
    <edge id=":237105_10" function="internal">
        <lane id=":237105_10_0" index="0" speed="16.67" length="48.27" shape="3344.39,4678.16 3331.58,4671.47 3322.33,4663.50 3316.63,4654.25 3314.48,4643.72"/>
    </edge>
    <edge id=":237105_11" function="internal">
        <lane id=":237105_11_0" index="0" speed="16.67" length="46.26" shape="3344.39,4678.16 3333.04,4671.98 3324.82,4664.17 3319.74,4654.71 3317.78,4643.62"/>
    </edge>
    <edge id=":237105_12" function="internal">
        <lane id=":237105_12_0" index="0" speed="16.67" length="4.86" shape="3344.39,4678.16 3343.55,4676.91 3343.48,4675.98 3344.19,4675.38 3345.66,4675.08"/>
    </edge>
    <edge id=":237105_13" function="internal">
        <lane id=":237105_13_0" index="0" speed="16.67" length="28.98" shape="3334.65,4643.06 3335.68,4650.82 3338.49,4657.21 3343.07,4662.25 3349.44,4665.94"/>
    </edge>
    <edge id=":237105_14" function="internal">
        <lane id=":237105_14_0" index="0" speed="16.67" length="47.21" shape="3331.35,4643.17 3333.85,4690.13"/>
        <lane id=":237105_14_1" index="1" speed="16.67" length="47.21" shape="3328.05,4643.28 3330.57,4690.42"/>
        <lane id=":237105_14_2" index="2" speed="16.67" length="47.21" shape="3324.75,4643.39 3327.28,4690.70"/>
    </edge>
    <edge id=":237105_17" function="internal">
        <lane id=":237105_17_0" index="0" speed="16.67" length="37.71" shape="3321.45,4643.49 3320.05,4653.95 3315.41,4660.13 3307.55,4662.04 3296.45,4659.67"/>
    </edge>
    <edge id=":237105_18" function="internal">
        <lane id=":237105_18_0" index="0" speed="16.67" length="5.37" shape="3321.45,4643.49 3320.58,4644.90 3319.68,4645.39 3318.74,4644.96 3317.78,4643.62"/>
    </edge>
    <edge id=":237105_19" function="internal">
        <lane id=":237105_19_0" index="0" speed="16.67" length="5.55" shape="3301.10,4646.57 3302.67,4646.94 3303.78,4646.64 3304.42,4645.68 3304.59,4644.05"/>
    </edge>
    <edge id=":237105_20" function="internal">
        <lane id=":237105_20_0" index="0" speed="16.67" length="9.19" shape="3301.10,4646.57 3304.14,4647.41 3306.28,4647.26 3307.53,4646.10 3307.88,4643.94"/>
    </edge>
    <edge id=":237105_21" function="internal">
        <lane id=":237105_21_0" index="0" speed="16.67" length="51.82" shape="3300.00,4649.68 3348.18,4668.98"/>
        <lane id=":237105_21_1" index="1" speed="16.67" length="51.82" shape="3298.89,4652.79 3346.92,4672.03"/>
    </edge>
    <edge id=":237105_23" function="internal">
        <lane id=":237105_23_0" index="0" speed="16.67" length="48.21" shape="3297.79,4655.90 3309.90,4662.05 3318.85,4669.90 3324.64,4679.45 3327.28,4690.70"/>
    </edge>
    <edge id=":237105_24" function="internal">
        <lane id=":237105_24_0" index="0" speed="16.67" length="46.33" shape="3297.79,4655.90 3308.41,4661.57 3316.31,4669.30 3321.51,4679.11 3323.99,4690.99"/>
    </edge>
    <edge id=":237105_25" function="internal">
        <lane id=":237105_25_0" index="0" speed="16.67" length="5.84" shape="3297.79,4655.90 3298.87,4657.35 3299.00,4658.46 3298.20,4659.23 3296.45,4659.67"/>
    </edge>
    <edge id=":237109_0" function="internal">
        <lane id=":237109_0_0" index="0" speed="15.28" length="5.07" shape="2906.22,4526.52 2904.86,4526.22 2903.76,4526.46 2902.93,4527.23 2902.37,4528.53"/>
    </edge>
    <edge id=":237109_1" function="internal">
        <lane id=":237109_1_0" index="0" speed="16.67" length="19.30" shape="2906.22,4526.52 2888.30,4518.85"/>
        <lane id=":237109_1_1" index="1" speed="16.67" length="19.30" shape="2907.27,4523.39 2889.72,4515.86"/>
    </edge>
    <edge id=":237109_3" function="internal">
        <lane id=":237109_3_0" index="0" speed="13.89" length="20.27" shape="2908.32,4520.26 2904.38,4517.82 2902.11,4514.12 2901.49,4509.16 2902.54,4502.95"/>
    </edge>
    <edge id=":237109_4" function="internal">
        <lane id=":237109_4_0" index="0" speed="16.67" length="5.33" shape="2908.32,4520.26 2907.32,4518.96 2907.18,4517.95 2907.90,4517.23 2909.49,4516.80"/>
    </edge>
    <edge id=":237109_5" function="internal">
        <lane id=":237109_5_0" index="0" speed="15.28" length="7.24" shape="2908.91,4504.70 2908.61,4506.76 2908.95,4508.43 2909.95,4509.69 2911.59,4510.55"/>
    </edge>
    <edge id=":237109_6" function="internal">
        <lane id=":237109_6_0" index="0" speed="13.89" length="24.72" shape="2908.91,4504.70 2902.37,4528.53"/>
        <lane id=":237109_6_1" index="1" speed="13.89" length="24.72" shape="2905.72,4503.82 2899.19,4527.66"/>
    </edge>
    <edge id=":237109_8" function="internal">
        <lane id=":237109_8_0" index="0" speed="15.28" length="20.38" shape="2905.72,4503.82 2903.36,4509.69 2900.13,4513.15 2896.06,4514.22 2891.13,4512.88"/>
    </edge>
    <edge id=":237109_9" function="internal">
        <lane id=":237109_9_0" index="0" speed="13.89" length="5.22" shape="2895.38,4503.89 2896.78,4504.33 2897.91,4504.17 2898.77,4503.42 2899.36,4502.07"/>
    </edge>
    <edge id=":237109_10" function="internal">
        <lane id=":237109_10_0" index="0" speed="16.67" length="17.73" shape="2895.38,4503.89 2900.08,4506.14 2903.33,4507.59 2906.66,4508.86 2911.59,4510.55"/>
        <lane id=":237109_10_1" index="1" speed="16.67" length="17.73" shape="2893.97,4506.88 2898.77,4509.17 2902.10,4510.66 2905.50,4511.96 2910.54,4513.68"/>
    </edge>
    <edge id=":237109_12" function="internal">
        <lane id=":237109_12_0" index="0" speed="15.28" length="20.88" shape="2892.56,4509.86 2896.79,4512.80 2899.30,4516.74 2900.10,4521.70 2899.19,4527.66"/>
    </edge>
    <edge id=":237109_13" function="internal">
        <lane id=":237109_13_0" index="0" speed="16.67" length="4.88" shape="2892.56,4509.86 2893.33,4511.15 2893.35,4512.09 2892.62,4512.66 2891.13,4512.88"/>
    </edge>
    <edge id=":237109_14" function="internal">
        <lane id=":237109_14_0" index="0" speed="13.89" length="9.20" shape="2892.82,4525.92 2892.99,4523.84 2892.29,4521.97 2890.73,4520.30 2888.30,4518.85"/>
    </edge>
    <edge id=":237109_15" function="internal">
        <lane id=":237109_15_0" index="0" speed="11.11" length="24.72" shape="2892.82,4525.92 2899.36,4502.07"/>
        <lane id=":237109_15_1" index="1" speed="11.11" length="24.72" shape="2896.00,4526.79 2902.54,4502.95"/>
    </edge>
    <edge id=":237109_17" function="internal">
        <lane id=":237109_17_0" index="0" speed="13.89" length="19.26" shape="2896.00,4526.79 2898.21,4521.18 2901.19,4517.65 2904.95,4516.19 2909.49,4516.80"/>
    </edge>
    <edge id=":237121_0" function="internal">
        <lane id=":237121_0_0" index="0" speed="16.67" length="22.78" shape="3676.90,4823.39 3655.85,4814.68"/>
        <lane id=":237121_0_1" index="1" speed="16.67" length="22.78" shape="3678.15,4820.34 3657.11,4811.63"/>
    </edge>
    <edge id=":237121_2" function="internal">
        <lane id=":237121_2_0" index="0" speed="13.89" length="23.89" shape="3679.41,4817.29 3673.07,4813.78 3669.28,4809.55 3668.05,4804.58 3669.36,4798.88"/>
    </edge>
    <edge id=":237121_3" function="internal">
        <lane id=":237121_3_0" index="0" speed="13.89" length="21.15" shape="3679.41,4817.29 3674.41,4814.34 3671.57,4810.50 3670.90,4805.78 3672.40,4800.18"/>
    </edge>
    <edge id=":237121_4" function="internal">
        <lane id=":237121_4_0" index="0" speed="16.67" length="4.83" shape="3679.41,4817.29 3678.58,4816.05 3678.51,4815.13 3679.20,4814.52 3680.67,4814.23"/>
    </edge>